Program Version,EnergyPlus, Version 25.2.0-cf7368216c, YMD=2026.05.12 20:38
