Program Version,EnergyPlus, Version 25.2.0-cf7368216c, YMD=2026.05.12 13:23,
Var Type (reported time step),Var Report Type,Variable Name [Units]
Zone,Meter,Electricity:Facility [J]
Zone,Meter,Electricity:Building [J]
Zone,Meter,Electricity:Zone:F1_S1 [J]
Zone,Meter,Electricity:SpaceType:GENERAL [J]
Zone,Meter,InteriorLights:Electricity [J]
Zone,Meter,InteriorLights:Electricity:Zone:F1_S1 [J]
Zone,Meter,InteriorLights:Electricity:SpaceType:GENERAL [J]
Zone,Meter,General:InteriorLights:Electricity [J]
Zone,Meter,General:InteriorLights:Electricity:Zone:F1_S1 [J]
Zone,Meter,General:InteriorLights:Electricity:SpaceType:GENERAL [J]
Zone,Meter,Electricity:Zone:F1_S2 [J]
Zone,Meter,InteriorLights:Electricity:Zone:F1_S2 [J]
Zone,Meter,General:InteriorLights:Electricity:Zone:F1_S2 [J]
Zone,Meter,Electricity:Zone:F1_S3 [J]
Zone,Meter,InteriorLights:Electricity:Zone:F1_S3 [J]
Zone,Meter,General:InteriorLights:Electricity:Zone:F1_S3 [J]
Zone,Meter,Electricity:Zone:F1_COR [J]
Zone,Meter,InteriorLights:Electricity:Zone:F1_COR [J]
Zone,Meter,General:InteriorLights:Electricity:Zone:F1_COR [J]
Zone,Meter,Electricity:Zone:F1_N1 [J]
Zone,Meter,InteriorLights:Electricity:Zone:F1_N1 [J]
Zone,Meter,General:InteriorLights:Electricity:Zone:F1_N1 [J]
Zone,Meter,Electricity:Zone:F1_N2 [J]
Zone,Meter,InteriorLights:Electricity:Zone:F1_N2 [J]
Zone,Meter,General:InteriorLights:Electricity:Zone:F1_N2 [J]
Zone,Meter,Electricity:Zone:F1_N3 [J]
Zone,Meter,InteriorLights:Electricity:Zone:F1_N3 [J]
Zone,Meter,General:InteriorLights:Electricity:Zone:F1_N3 [J]
Zone,Meter,Electricity:Zone:F2_S1 [J]
Zone,Meter,InteriorLights:Electricity:Zone:F2_S1 [J]
Zone,Meter,General:InteriorLights:Electricity:Zone:F2_S1 [J]
Zone,Meter,Electricity:Zone:F2_S2 [J]
Zone,Meter,InteriorLights:Electricity:Zone:F2_S2 [J]
Zone,Meter,General:InteriorLights:Electricity:Zone:F2_S2 [J]
Zone,Meter,Electricity:Zone:F2_S3 [J]
Zone,Meter,InteriorLights:Electricity:Zone:F2_S3 [J]
Zone,Meter,General:InteriorLights:Electricity:Zone:F2_S3 [J]
Zone,Meter,Electricity:Zone:F2_COR [J]
Zone,Meter,InteriorLights:Electricity:Zone:F2_COR [J]
Zone,Meter,General:InteriorLights:Electricity:Zone:F2_COR [J]
Zone,Meter,Electricity:Zone:F2_N1 [J]
Zone,Meter,InteriorLights:Electricity:Zone:F2_N1 [J]
Zone,Meter,General:InteriorLights:Electricity:Zone:F2_N1 [J]
Zone,Meter,Electricity:Zone:F2_N2 [J]
Zone,Meter,InteriorLights:Electricity:Zone:F2_N2 [J]
Zone,Meter,General:InteriorLights:Electricity:Zone:F2_N2 [J]
Zone,Meter,Electricity:Zone:F2_N3 [J]
Zone,Meter,InteriorLights:Electricity:Zone:F2_N3 [J]
Zone,Meter,General:InteriorLights:Electricity:Zone:F2_N3 [J]
Zone,Meter,Electricity:Zone:F2_N4 [J]
Zone,Meter,InteriorLights:Electricity:Zone:F2_N4 [J]
Zone,Meter,General:InteriorLights:Electricity:Zone:F2_N4 [J]
Zone,Meter,Electricity:Zone:F3_S1 [J]
Zone,Meter,InteriorLights:Electricity:Zone:F3_S1 [J]
Zone,Meter,General:InteriorLights:Electricity:Zone:F3_S1 [J]
Zone,Meter,Electricity:Zone:F3_S2 [J]
Zone,Meter,InteriorLights:Electricity:Zone:F3_S2 [J]
Zone,Meter,General:InteriorLights:Electricity:Zone:F3_S2 [J]
Zone,Meter,Electricity:Zone:F3_COR [J]
Zone,Meter,InteriorLights:Electricity:Zone:F3_COR [J]
Zone,Meter,General:InteriorLights:Electricity:Zone:F3_COR [J]
Zone,Meter,Electricity:Zone:F3_N1 [J]
Zone,Meter,InteriorLights:Electricity:Zone:F3_N1 [J]
Zone,Meter,General:InteriorLights:Electricity:Zone:F3_N1 [J]
Zone,Meter,EnergyTransfer:Facility [J]
Zone,Meter,EnergyTransfer:Building [J]
Zone,Meter,EnergyTransfer:Zone:F1_S1 [J]
Zone,Meter,Heating:EnergyTransfer [J]
Zone,Meter,Heating:EnergyTransfer:Zone:F1_S1 [J]
Zone,Meter,General:Heating:EnergyTransfer [J]
Zone,Meter,General:Heating:EnergyTransfer:Zone:F1_S1 [J]
Zone,Meter,Cooling:EnergyTransfer [J]
Zone,Meter,Cooling:EnergyTransfer:Zone:F1_S1 [J]
Zone,Meter,General:Cooling:EnergyTransfer [J]
Zone,Meter,General:Cooling:EnergyTransfer:Zone:F1_S1 [J]
Zone,Meter,EnergyTransfer:Zone:F1_S2 [J]
Zone,Meter,Heating:EnergyTransfer:Zone:F1_S2 [J]
Zone,Meter,General:Heating:EnergyTransfer:Zone:F1_S2 [J]
Zone,Meter,Cooling:EnergyTransfer:Zone:F1_S2 [J]
Zone,Meter,General:Cooling:EnergyTransfer:Zone:F1_S2 [J]
Zone,Meter,EnergyTransfer:Zone:F1_S3 [J]
Zone,Meter,Heating:EnergyTransfer:Zone:F1_S3 [J]
Zone,Meter,General:Heating:EnergyTransfer:Zone:F1_S3 [J]
Zone,Meter,Cooling:EnergyTransfer:Zone:F1_S3 [J]
Zone,Meter,General:Cooling:EnergyTransfer:Zone:F1_S3 [J]
Zone,Meter,EnergyTransfer:Zone:F1_COR [J]
Zone,Meter,Heating:EnergyTransfer:Zone:F1_COR [J]
Zone,Meter,General:Heating:EnergyTransfer:Zone:F1_COR [J]
Zone,Meter,Cooling:EnergyTransfer:Zone:F1_COR [J]
Zone,Meter,General:Cooling:EnergyTransfer:Zone:F1_COR [J]
Zone,Meter,EnergyTransfer:Zone:F1_N1 [J]
Zone,Meter,Heating:EnergyTransfer:Zone:F1_N1 [J]
Zone,Meter,General:Heating:EnergyTransfer:Zone:F1_N1 [J]
Zone,Meter,Cooling:EnergyTransfer:Zone:F1_N1 [J]
Zone,Meter,General:Cooling:EnergyTransfer:Zone:F1_N1 [J]
Zone,Meter,EnergyTransfer:Zone:F1_N2 [J]
Zone,Meter,Heating:EnergyTransfer:Zone:F1_N2 [J]
Zone,Meter,General:Heating:EnergyTransfer:Zone:F1_N2 [J]
Zone,Meter,Cooling:EnergyTransfer:Zone:F1_N2 [J]
Zone,Meter,General:Cooling:EnergyTransfer:Zone:F1_N2 [J]
Zone,Meter,EnergyTransfer:Zone:F1_N3 [J]
Zone,Meter,Heating:EnergyTransfer:Zone:F1_N3 [J]
Zone,Meter,General:Heating:EnergyTransfer:Zone:F1_N3 [J]
Zone,Meter,Cooling:EnergyTransfer:Zone:F1_N3 [J]
Zone,Meter,General:Cooling:EnergyTransfer:Zone:F1_N3 [J]
Zone,Meter,EnergyTransfer:Zone:F2_S1 [J]
Zone,Meter,Heating:EnergyTransfer:Zone:F2_S1 [J]
Zone,Meter,General:Heating:EnergyTransfer:Zone:F2_S1 [J]
Zone,Meter,Cooling:EnergyTransfer:Zone:F2_S1 [J]
Zone,Meter,General:Cooling:EnergyTransfer:Zone:F2_S1 [J]
Zone,Meter,EnergyTransfer:Zone:F2_S2 [J]
Zone,Meter,Heating:EnergyTransfer:Zone:F2_S2 [J]
Zone,Meter,General:Heating:EnergyTransfer:Zone:F2_S2 [J]
Zone,Meter,Cooling:EnergyTransfer:Zone:F2_S2 [J]
Zone,Meter,General:Cooling:EnergyTransfer:Zone:F2_S2 [J]
Zone,Meter,EnergyTransfer:Zone:F2_S3 [J]
Zone,Meter,Heating:EnergyTransfer:Zone:F2_S3 [J]
Zone,Meter,General:Heating:EnergyTransfer:Zone:F2_S3 [J]
Zone,Meter,Cooling:EnergyTransfer:Zone:F2_S3 [J]
Zone,Meter,General:Cooling:EnergyTransfer:Zone:F2_S3 [J]
Zone,Meter,EnergyTransfer:Zone:F2_COR [J]
Zone,Meter,Heating:EnergyTransfer:Zone:F2_COR [J]
Zone,Meter,General:Heating:EnergyTransfer:Zone:F2_COR [J]
Zone,Meter,Cooling:EnergyTransfer:Zone:F2_COR [J]
Zone,Meter,General:Cooling:EnergyTransfer:Zone:F2_COR [J]
Zone,Meter,EnergyTransfer:Zone:F2_N1 [J]
Zone,Meter,Heating:EnergyTransfer:Zone:F2_N1 [J]
Zone,Meter,General:Heating:EnergyTransfer:Zone:F2_N1 [J]
Zone,Meter,Cooling:EnergyTransfer:Zone:F2_N1 [J]
Zone,Meter,General:Cooling:EnergyTransfer:Zone:F2_N1 [J]
Zone,Meter,EnergyTransfer:Zone:F2_N2 [J]
Zone,Meter,Heating:EnergyTransfer:Zone:F2_N2 [J]
Zone,Meter,General:Heating:EnergyTransfer:Zone:F2_N2 [J]
Zone,Meter,Cooling:EnergyTransfer:Zone:F2_N2 [J]
Zone,Meter,General:Cooling:EnergyTransfer:Zone:F2_N2 [J]
Zone,Meter,EnergyTransfer:Zone:F2_N3 [J]
Zone,Meter,Heating:EnergyTransfer:Zone:F2_N3 [J]
Zone,Meter,General:Heating:EnergyTransfer:Zone:F2_N3 [J]
Zone,Meter,Cooling:EnergyTransfer:Zone:F2_N3 [J]
Zone,Meter,General:Cooling:EnergyTransfer:Zone:F2_N3 [J]
Zone,Meter,EnergyTransfer:Zone:F2_N4 [J]
Zone,Meter,Heating:EnergyTransfer:Zone:F2_N4 [J]
Zone,Meter,General:Heating:EnergyTransfer:Zone:F2_N4 [J]
Zone,Meter,Cooling:EnergyTransfer:Zone:F2_N4 [J]
Zone,Meter,General:Cooling:EnergyTransfer:Zone:F2_N4 [J]
Zone,Meter,EnergyTransfer:Zone:F3_S1 [J]
Zone,Meter,Heating:EnergyTransfer:Zone:F3_S1 [J]
Zone,Meter,General:Heating:EnergyTransfer:Zone:F3_S1 [J]
Zone,Meter,Cooling:EnergyTransfer:Zone:F3_S1 [J]
Zone,Meter,General:Cooling:EnergyTransfer:Zone:F3_S1 [J]
Zone,Meter,EnergyTransfer:Zone:F3_S2 [J]
Zone,Meter,Heating:EnergyTransfer:Zone:F3_S2 [J]
Zone,Meter,General:Heating:EnergyTransfer:Zone:F3_S2 [J]
Zone,Meter,Cooling:EnergyTransfer:Zone:F3_S2 [J]
Zone,Meter,General:Cooling:EnergyTransfer:Zone:F3_S2 [J]
Zone,Meter,EnergyTransfer:Zone:F3_COR [J]
Zone,Meter,Heating:EnergyTransfer:Zone:F3_COR [J]
Zone,Meter,General:Heating:EnergyTransfer:Zone:F3_COR [J]
Zone,Meter,Cooling:EnergyTransfer:Zone:F3_COR [J]
Zone,Meter,General:Cooling:EnergyTransfer:Zone:F3_COR [J]
Zone,Meter,EnergyTransfer:Zone:F3_N1 [J]
Zone,Meter,Heating:EnergyTransfer:Zone:F3_N1 [J]
Zone,Meter,General:Heating:EnergyTransfer:Zone:F3_N1 [J]
Zone,Meter,Cooling:EnergyTransfer:Zone:F3_N1 [J]
Zone,Meter,General:Cooling:EnergyTransfer:Zone:F3_N1 [J]
Zone,Meter,DistrictHeatingWater:Facility [J]
Zone,Meter,DistrictHeatingWater:HVAC [J]
Zone,Meter,Heating:DistrictHeatingWater [J]
Zone,Meter,General:Heating:DistrictHeatingWater [J]
Zone,Meter,DistrictCooling:Facility [J]
Zone,Meter,DistrictCooling:HVAC [J]
Zone,Meter,Cooling:DistrictCooling [J]
Zone,Meter,General:Cooling:DistrictCooling [J]
Zone,Meter,ElectricityPurchased:Facility [J]
Zone,Meter,ElectricityPurchased:Plant [J]
Zone,Meter,Cogeneration:ElectricityPurchased [J]
Zone,Meter,General:Cogeneration:ElectricityPurchased [J]
Zone,Meter,ElectricitySurplusSold:Facility [J]
Zone,Meter,ElectricitySurplusSold:Plant [J]
Zone,Meter,Cogeneration:ElectricitySurplusSold [J]
Zone,Meter,General:Cogeneration:ElectricitySurplusSold [J]
Zone,Meter,ElectricityNet:Facility [J]
Zone,Meter,ElectricityNet:Plant [J]
Zone,Meter,Cogeneration:ElectricityNet [J]
Zone,Meter,General:Cogeneration:ElectricityNet [J]
Zone,Meter,Carbon Equivalent:Facility [kg]
Zone,Meter,CarbonEquivalentEmissions:Carbon Equivalent [kg]
