Program Version,EnergyPlus, Version 25.2.0-cf7368216c, YMD=2026.05.12 20:42,
   ** Warning ** Version: in IDF="25.1.0" not the same as expected="25.2"
   ** Warning ** Version: in IDF="25.1.0" not the same as expected="25.2"
   ** Warning ** No Timestep object found.  Number of TimeSteps in Hour defaulted to 4.
   ** Warning ** GetProjectData: Mismatch in the Sizing Flags Do HVAC Sizing and Do Plant Sizing in SimulationControl object
   **   ~~~   ** ...The Do HVAC Sizing Simulation for Sizing Periods flag is YES, but the Do Plant Sizing
   **   ~~~   ** ...Calculation flag is NO.  This is not allowed.  Either set the Do HVAC Sizing Simulation
   **   ~~~   ** ...for Sizing Periods flag to NO or set the Do Plant Sizing Calculation to YES and add the
   **   ~~~   ** ...appropriate Sizing:Plant object(s) to the input file.  The simulation continues with
   **   ~~~   ** ...the Do HVAC Sizing flag reset to NO.
   ** Warning ** CheckEnvironmentSpecifications: SimulationControl specified doing design day simulations, but no design environments specified.
   **   ~~~   ** ...No design environment results produced. For these results, add appropriate SizingPeriod:* objects for your simulation.
   ** Warning ** Weather file location will be used rather than entered (IDF) Location object.
   **   ~~~   ** ..Location object=SHENZHEN_CN
   **   ~~~   ** ..Weather File Location=SHENZHEN - CHN SWERA WMO#=594930
   **   ~~~   ** ..due to location differences, Latitude difference=[1.00E-002] degrees, Longitude difference=[4.00E-002] degrees.
   **   ~~~   ** ..Time Zone difference=[0.0] hour(s), Elevation difference=[1800.00] percent, [18.00] meters.
   ** Warning ** GlobalGeometryRules: Potential mismatch of coordinate specifications. Note that the rectangular surfaces are relying on the default SurfaceGeometry for 'Relative to zone' coordinate.
   **   ~~~   ** Coordinate System="WORLD"; while 
   **   ~~~   ** Rectangular Surface Coordinate System="RELATIVE".
   ** Warning ** GetSurfaceData: World Coordinate System selected.  Any non-zero Building/Zone North Axes or non-zero Zone Origins are ignored.
   **   ~~~   ** These may be used in daylighting reference point coordinate calculations but not in normal geometry inputs.
   ** Warning ** GetHTSurfaceData: Surfaces with interface to Ground found but no "Ground Temperatures" were input.
   **   ~~~   ** Found first in surface=F1_S1_FLOOR
   **   ~~~   ** Defaults, constant throughout the year of (18.0) will be used.
   ************* Testing Individual Branch Integrity
   ************* All Branches passed integrity testing
   ************* Testing Individual Supply Air Path Integrity
   ************* All Supply Air Paths passed integrity testing
   ************* Testing Individual Return Air Path Integrity
   ************* All Return Air Paths passed integrity testing
   ************* No node connection errors were found.
   ************* Beginning Simulation
   ************* Simulation Error Summary *************
   ************* There are 1 unused schedules in input.
   ************* Use Output:Diagnostics,DisplayUnusedSchedules; to see them.
   ************* EnergyPlus Warmup Error Summary. During Warmup: 0 Warning; 0 Severe Errors.
   ************* EnergyPlus Sizing Error Summary. During Sizing: 0 Warning; 0 Severe Errors.
   ************* EnergyPlus Completed Successfully-- 9 Warning; 0 Severe Errors; Elapsed Time=00hr 00min  8.49sec
